# CIF file generated by openbabel 2.4.1, see http://openbabel.sf.net
data_I
_chemical_name_common ''
_cell_length_a 21.4849
_cell_length_b 26.6472
_cell_length_c 4.00321
_cell_angle_alpha 90
_cell_angle_beta 90
_cell_angle_gamma 90
_space_group_name_H-M_alt 'P 1'
_space_group_name_Hall 'P 1'
loop_
    _symmetry_equiv_pos_as_xyz
    x,y,z
loop_
    _atom_site_label
    _atom_site_type_symbol
    _atom_site_fract_x
    _atom_site_fract_y
    _atom_site_fract_z
    _atom_site_occupancy
    Xx0     Xx   0.21890   0.76477   0.13454   1.000
    H1      H    0.33326   0.99639   0.15052   1.000
    Xx2     Xx   0.39260   0.23897   0.14203   1.000
    V3      V    0.42863   0.10740   0.42106   1.000
    Xx4     Xx   0.49709   0.97597   0.41181   1.000
    Xx5     Xx   0.59526   0.86883   0.14053   1.000
    Xx6     Xx   0.66791   0.99234   0.42106   1.000
    Xx7     Xx   0.21927   0.89829   0.40757   1.000
    Xx8     Xx   0.55737   0.20663   0.37360   1.000
    Xx9     Xx   0.71092   0.26479   0.13454   1.000
    V10     V    0.10449   0.53311   0.15102   1.000
    Xx11    Xx   0.59656   0.49641   0.15052   1.000
    V12     V    0.82532   0.03314   0.15102   1.000
    V13     V    0.04505   0.29057   0.14253   1.000
    Xx14    Xx   0.53717   0.73899   0.14203   1.000
    Xx15    Xx   0.88476   0.79059   0.14253   1.000
    Xx16    Xx   0.00908   0.42218   0.42131   1.000
    Xx17    Xx   0.50119   0.60742   0.42106   1.000
    Xx18    Xx   0.92074   0.92216   0.42156   1.000
    V19     V    0.92479   0.55364   0.41181   1.000
    Xx20    Xx   0.43272   0.47596   0.41156   1.000
    Xx21    Xx   0.00503   0.05363   0.41206   1.000
    Xx22    Xx   0.82667   0.66074   0.14053   1.000
    Xx23    Xx   0.33456   0.36886   0.14053   1.000
    N24     N    0.10319   0.16077   0.14078   1.000
    Xx25    Xx   0.75397   0.53728   0.42106   1.000
    V26     V    0.26195   0.49232   0.42106   1.000
    Xx27    Xx   0.17584   0.03726   0.42106   1.000
    Xx28    Xx   0.21843   0.63129   0.40757   1.000
    Xx29    Xx   0.71055   0.39828   0.40732   1.000
    Xx30    Xx   0.71138   0.13131   0.40757   1.000
    Xx31    Xx   0.86442   0.32300   0.37335   1.000
    Xx32    Xx   0.37240   0.70664   0.37360   1.000
    V33     V    0.06539   0.82298   0.37360   1.000
    Xx34    Xx   0.57282   0.08324   0.16226   1.000
    V35     V    0.84906   0.44643   0.16201   1.000
    Xx36    Xx   0.35699   0.58321   0.16226   1.000
    Xx37    Xx   0.08075   0.94640   0.16226   1.000
    Xx38    Xx   0.75621   0.87990   0.28716   1.000
    Xx39    Xx   0.66568   0.64967   0.28691   1.000
    V40     V    0.17356   0.37989   0.28691   1.000
    Xx41    Xx   0.26414   0.14966   0.28691   1.000
    Xx42    Xx   0.21890   0.26479   0.40332   1.000
    V43     V    0.71096   0.76477   0.40307   1.000
    O44     O    0.21890   0.76477   0.71687   1.000
    O45     O    0.21890   0.26479   0.81999   1.000
    O46     O    0.33275   0.99545   0.73261   1.000
    O47     O    0.39293   0.23669   0.72462   1.000
    O48     O    0.42853   0.10707   0.84047   1.000
    O49     O    0.49830   0.97631   0.83098   1.000
    O50     O    0.59325   0.87184   0.72337   1.000
    O51     O    0.66591   0.99129   0.83997   1.000
    O52     O    0.57301   0.08320   0.73486   1.000
    O53     O    0.21983   0.89728   0.82673   1.000
    O54     O    0.55811   0.20959   0.79226   1.000
    O55     O    0.76277   0.88730   0.74180   1.000
    O56     O    0.73019   0.19657   0.27742   1.000
    O57     O    0.78241   0.09592   0.28142   1.000
    O58     O    0.25753   0.03032   0.28617   1.000
    O59     O    0.78888   0.80057   0.25394   1.000
    O60     O    0.90645   0.06046   0.28467   1.000
    O61     O    0.98111   0.97796   0.31090   1.000
    O62     O    0.88295   0.86144   0.28766   1.000
    O63     O    0.18394   0.19920   0.25019   1.000
    O64     O    0.03831   0.11641   0.29316   1.000
    O65     O    0.01783   0.88932   0.28217   1.000
    O66     O    0.97464   0.79070   0.25294   1.000
    O67     O    0.08941   0.02537   0.26368   1.000
    O68     O    0.12842   0.88028   0.28342   1.000
    O69     O    0.12949   0.78125   0.23695   1.000
    O70     O    0.06088   0.22179   0.24220   1.000
    O71     O    0.16737   0.10654   0.26593   1.000
    O72     O    0.17007   0.96280   0.31090   1.000
    O73     O    0.36900   0.06301   0.27467   1.000
    O74     O    0.71092   0.26479   0.71687   1.000
    O75     O    0.71096   0.76477   0.81999   1.000
    O76     O    0.10505   0.53401   0.73286   1.000
    O77     O    0.59712   0.49551   0.73236   1.000
    O78     O    0.82481   0.03400   0.73286   1.000
    O79     O    0.04473   0.29286   0.72512   1.000
    O80     O    0.53689   0.73670   0.72462   1.000
    O81     O    0.88509   0.79288   0.72512   1.000
    O82     O    0.00908   0.42252   0.84072   1.000
    O83     O    0.50124   0.60704   0.84047   1.000
    O84     O    0.92074   0.92250   0.84097   1.000
    O85     O    0.92358   0.55323   0.83098   1.000
    O86     O    0.43151   0.47634   0.83073   1.000
    O87     O    0.00624   0.05325   0.83098   1.000
    O88     O    0.82872   0.65782   0.72337   1.000
    O89     O    0.33656   0.37182   0.72337   1.000
    O90     O    0.10109   0.15780   0.72337   1.000
    O91     O    0.75588   0.53833   0.83972   1.000
    O92     O    0.26395   0.49127   0.83972   1.000
    O93     O    0.17398   0.03835   0.83972   1.000
    O94     O    0.84888   0.44650   0.73461   1.000
    O95     O    0.35676   0.58318   0.73486   1.000
    O96     O    0.08094   0.94652   0.73461   1.000
    O97     O    0.21783   0.63230   0.82673   1.000
    O98     O    0.70999   0.39730   0.82648   1.000
    O99     O    0.71199   0.13232   0.82673   1.000
    O100    O    0.86363   0.32015   0.79201   1.000
    O101    O    0.37170   0.70957   0.79226   1.000
    O102    O    0.06614   0.82009   0.79226   1.000
    O103    O    0.65911   0.64224   0.74130   1.000
    O104    O    0.16705   0.38728   0.74155   1.000
    O105    O    0.27070   0.14227   0.74155   1.000
    O106    O    0.69170   0.33306   0.27742   1.000
    O107    O    0.19963   0.69655   0.27742   1.000
    O108    O    0.23812   0.83303   0.27742   1.000
    O109    O    0.63947   0.43367   0.28167   1.000
    O110    O    0.14741   0.59590   0.28142   1.000
    O111    O    0.29034   0.93364   0.28167   1.000
    O112    O    0.18027   0.49926   0.28666   1.000
    O113    O    0.67233   0.53034   0.28617   1.000
    O114    O    0.74955   0.99928   0.28666   1.000
    O115    O    0.63300   0.72897   0.25369   1.000
    O116    O    0.14094   0.30059   0.25394   1.000
    O117    O    0.29681   0.22899   0.25369   1.000
    O118    O    0.51543   0.46917   0.28417   1.000
    O119    O    0.02341   0.56043   0.28467   1.000
    O120    O    0.41438   0.96914   0.28442   1.000
    O121    O    0.44077   0.55165   0.31065   1.000
    O122    O    0.93284   0.47799   0.31065   1.000
    O123    O    0.48904   0.05164   0.31090   1.000
    O124    O    0.53894   0.66814   0.28716   1.000
    O125    O    0.04687   0.36143   0.28766   1.000
    O126    O    0.39083   0.16816   0.28716   1.000
    O127    O    0.25376   0.33039   0.24994   1.000
    O128    O    0.74587   0.69921   0.24994   1.000
    O129    O    0.67606   0.83037   0.25019   1.000
    O130    O    0.39944   0.41321   0.29266   1.000
    O131    O    0.89151   0.61639   0.29316   1.000
    O132    O    0.53037   0.91319   0.29291   1.000
    O133    O    0.41997   0.64029   0.28242   1.000
    O134    O    0.91199   0.38935   0.28217   1.000
    O135    O    0.50985   0.14028   0.28242   1.000
    O136    O    0.44729   0.73888   0.25244   1.000
    O137    O    0.93931   0.29072   0.25294   1.000
    O138    O    0.48252   0.23890   0.25244   1.000
    O139    O    0.34834   0.50426   0.26318   1.000
    O140    O    0.84040   0.52535   0.26368   1.000
    O141    O    0.58148   0.00428   0.26343   1.000
    O142    O    0.30933   0.64934   0.28417   1.000
    O143    O    0.80140   0.38030   0.28317   1.000
    O144    O    0.62048   0.14932   0.28417   1.000
    O145    O    0.30831   0.74833   0.23695   1.000
    O146    O    0.80033   0.28127   0.23695   1.000
    O147    O    0.62151   0.24836   0.23695   1.000
    O148    O    0.37682   0.30780   0.24195   1.000
    O149    O    0.86894   0.72180   0.24220   1.000
    O150    O    0.55299   0.80778   0.24195   1.000
    O151    O    0.27038   0.42305   0.26593   1.000
    O152    O    0.76244   0.60656   0.26568   1.000
    O153    O    0.65944   0.92306   0.26593   1.000
    O154    O    0.26772   0.56681   0.31090   1.000
    O155    O    0.75979   0.46283   0.31065   1.000
    O156    O    0.66214   0.06680   0.31090   1.000
    O157    O    0.06875   0.46658   0.27542   1.000
    O158    O    0.56081   0.56299   0.27467   1.000
    O159    O    0.85120   0.97027   0.27318   1.000
